#encoding utf-8
#import conf.engine_conf as cfg
#import conf.client_conf as cln
#extends systems.engine_main_term

#def engineData

<div align = "center">
<b>$cln.trade_secret</b><br><br>
#if $varExists('$termname')
    #if $termname != '' and $termname is not None
        $termname
    #end if
#end if

#if $varExists('$termusername')
    <br/>Пользователь:
    #if $termusername != '' and $termusername is not None
        $termusername<br/><br/>
    #else
        не привязан<br/><br/>
    #end if
#end if



<form id="login_term" action="login_term" method='POST'>
    #if $mes != 'termnum_is_lost'
        Отсканируйте Ваш ШК<br/>
        <input type=
        #if cfg.TERMINAL_BARCODE_ASTERISKS
            "password"
        #else
            "text"
        #end if
        id=':scan:' name="code" class="scanBarcode">
    #end if

    <br/>
    <p id="error">
        #if $varExists('$mes')
            #if $mes != '' and $mes is not None
                #if $mes == 'termnum_is_lost'
                    <font class="red"><b>Была потеряна связь с сервером. Реинициализация оборудования...</b></font>                    
                #else
                    <font class="red"><b>$mes</b></font>
                #end if
            #end if
        #end if
    </p>
</form><br>

<b>$cln.agree_trsecret</b>
</div>
<script type="text/javascript">
    #if $mes == 'termnum_is_lost'
        document.body.onload = function() {
            try{
                setTimeout('location.href = "$cfg.TERMINAL_START_PAGE"', 3000);
            }catch(e){
                setTimeout(location.href = "$cfg.init_url", 3000);
            }
        };
    #end if
</script>
#end def
